cases/221_bus_real_UK_case/lv_cable_221_bus_UK.txt
New Line.Tx623096-lv_cable36061683 Bus1=bus_36048860.1.2.3 Bus2=bus_36061717.1.2.3 phases=3 R1=0.00012701 X1=7.2987e-05 R0=0.00061903 X0=0.00010903 length=15.4 units=m Normamps=370
New Line.Tx623096-lv_cable36052014 Bus1=bus_36052452.1.2.3 Bus2=bus_36086852.1.2.3 phases=3 R1=0.00027401 X1=7.3021e-05 R0=0.001946 X0=8.3021e-05 length=19.2 units=m Normamps=240
New Line.Tx623096-lv_cable36059315 Bus1=bus_36059310.1.2.3 Bus2=bus_36059318.1.2.3 phases=3 R1=0.000166 X1=6.9e-05 R0=0.000625 X0=8.8e-05 length=9 units=m Normamps=320
New Line.Tx623096-lv_cable522225318 Bus1=bus_522225317.1.2.3 Bus2=bus_522225316.1.2.3 phases=3 R1=0.000166 X1=7.4e-05 R0=0.000658 X0=0.000112 length=1.5 units=m Normamps=320
New Line.Tx623096-lv_cable492757520 Bus1=bus_492757292_492757520.1.2.3 Bus2=bus_492757285.1.2.3 phases=3 R1=0.00016607 X1=7.3929e-05 R0=0.00065786 X0=0.00011214 length=2.8 units=m Normamps=320
New Line.Tx623096-lv_cable36085583 Bus1=bus_36085578.1.2.3 Bus2=bus_36085587_36085583.1.2.3 phases=3 R1=4.7222e-05 X1=0.00015889 R0=0.00018778 X0=0.00070389 length=1.8 units=m Normamps=520
New Line.Tx623096-lv_cable36059322 Bus1=bus_36059318.1.2.3 Bus2=bus_36086723.1.2.3 phases=3 R1=0.00016598 X1=6.9016e-05 R0=0.000625 X0=8.8033e-05 length=12.2 units=m Normamps=320
New Line.Tx623096-lv_cable36085569 Bus1=bus_36048858.1.2.3 Bus2=bus_36085589_36085569.1.2.3 phases=3 R1=0.00016599 X1=7.401e-05 R0=0.00065799 X0=0.00011201 length=39.9 units=m Normamps=320
New Line.Tx623096-lv_cable36085560 Bus1=bus_36048860.1.2.3 Bus2=bus_36085591_36085560.1.2.3 phases=3 R1=0.00012699 X1=7.301e-05 R0=0.000619 X0=0.000109 length=41.2 units=m Normamps=370
New Line.Tx623096-lv_cable36080092 Bus1=bus_36041731.1.2.3 Bus2=bus_36080096.1.2.3 phases=3 R1=0.00044593 X1=7.0926e-05 R0=0.00254 X0=9.0926e-05 length=5.4 units=m Normamps=160
New Line.Tx623096-lv_cable36041632 Bus1=bus_36041406.1.2.3 Bus2=bus_522225317.1.2.3 phases=3 R1=0.00016588 X1=6.8824e-05 R0=0.00062529 X0=8.8235e-05 length=1.7 units=m Normamps=320
New Line.Tx623096-lv_cable539393276 Bus1=bus_539393273.1.2.3 Bus2=bus_539393274.1.2.3 phases=3 R1=0.000166 X1=7.4e-05 R0=0.000658 X0=0.000112 length=3 units=m Normamps=320
New Line.Tx623096-lv_cable36079641 Bus1=bus_36079960.1.2.3 Bus2=bus_36079976.1.2.3 phases=3 R1=0.000166 X1=7.4e-05 R0=0.000658 X0=0.000112 length=5 units=m Normamps=320
New Line.Tx623096-lv_cable36061714 Bus1=bus_36061717.1.2.3 Bus2=bus_36061716_01.1.2.3 phases=3 R1=0.0012 X1=7.7011e-05 R0=0.001345 X0=7.7011e-05 length=34.8 units=m Normamps=89
New Line.Tx623096-lv_cable36085566 Bus1=bus_36085592_36085566.1.2.3 Bus2=bus_36086723.1.2.3 phases=3 R1=0.00015 X1=6.9007e-05 R0=0.001187 X0=8.1987e-05 length=15.1 units=m Normamps=345
New Line.Tx623096-lv_cable36041794 Bus1=bus_36041731.1.2.3 Bus2=bus_36041785.1.2.3 phases=3 R1=0.00044603 X1=7.1034e-05 R0=0.00254 X0=9.1034e-05 length=11.6 units=m Normamps=160
New Line.Tx623096-lv_cable36041381 Bus1=bus_36041363.1.2.3 Bus2=bus_36041406.1.2.3 phases=3 R1=0.00016599 X1=6.9006e-05 R0=0.000625 X0=8.7997e-05 length=69.4 units=m Normamps=320
New Line.Tx623096-lv_cable36079636 Bus1=bus_36079959.1.2.3 Bus2=bus_36079976.1.2.3 phases=3 R1=0.00016625 X1=6.875e-05 R0=0.000625 X0=8.75e-05 length=0.8 units=m Normamps=320
New Line.Tx623096-lv_cable36048595_01 Bus1=bus_36059310.1.2.3 Bus2=bus_36059307.1.2.3 phases=3 R1=0.00016595 X1=6.8977e-05 R0=0.00062488 X0=8.8e-05 length=21.5 units=m Normamps=320
New Line.Tx623096-lv_cable36048595_02 Bus1=bus_36059307.1.2.3 Bus2=bus_36079933.1.2.3 phases=3 R1=0.00016597 X1=6.8984e-05 R0=0.00062489 X0=8.7984e-05 length=63 units=m Normamps=320
New Line.Tx623096-lv_cable36048595_03 Bus1=bus_36079933.1.2.3 Bus2=bus_36079976.1.2.3 phases=3 R1=0.00016607 X1=6.9026e-05 R0=0.00062527 X0=8.8052e-05 length=34.9 units=m Normamps=320
New Line.Tx623096-lv_cable36061718_01 Bus1=bus_36061717.1.2.3 Bus2=bus_36061721.1.2.3 phases=3 R1=0.00031733 X1=6.8e-05 R0=0.0011833 X0=9.5667e-05 length=3 units=m Normamps=220
New Line.Tx623096-lv_cable36061718_02 Bus1=bus_36061721.1.2.3 Bus2=bus_36048787_01.1.2.3 phases=3 R1=0.00032245 X1=6.9108e-05 R0=0.0012027 X0=9.7134e-05 length=31.4 units=m Normamps=220
New Line.Tx623096-lv_cable36048621_01 Bus1=bus_539393273.1.2.3 Bus2=bus_36048896.1.2.3 phases=3 R1=0.0001659 X1=6.8974e-05 R0=0.00062462 X0=8.7949e-05 length=3.9 units=m Normamps=320
New Line.Tx623096-lv_cable36048621_02 Bus1=bus_36048896.1.2.3 Bus2=bus_36048813.1.2.3 phases=3 R1=0.00016641 X1=6.9167e-05 R0=0.00062661 X0=8.8229e-05 length=19.2 units=m Normamps=320
New Line.Tx623096-lv_cable36048621_03 Bus1=bus_36048813.1.2.3 Bus2=bus_36048812.1.2.3 phases=3 R1=0.00016833 X1=7e-05 R0=0.000635 X0=8.9167e-05 length=1.2 units=m Normamps=320
New Line.Tx623096-lv_cable36048621_04 Bus1=bus_36048812.1.2.3 Bus2=bus_36048810.1.2.3 phases=3 R1=0.00016609 X1=6.9037e-05 R0=0.00062535 X0=8.8045e-05 length=35.3 units=m Normamps=320
New Line.Tx623096-lv_cable36048621_05 Bus1=bus_36048810.1.2.3 Bus2=bus_36048808.1.2.3 phases=3 R1=0.00017083 X1=7.0833e-05 R0=0.00064333 X0=9.0833e-05 length=1.2 units=m Normamps=320
New Line.Tx623096-lv_cable36048621_06 Bus1=bus_36048808.1.2.3 Bus2=bus_36048861.1.2.3 phases=3 R1=0.00016585 X1=6.8941e-05 R0=0.00062441 X0=8.7924e-05 length=23.6 units=m Normamps=320
New Line.Tx623096-lv_cable36041107_01 Bus1=bus_36052466.1.2.3 Bus2=bus_36041160.1.2.3 phases=3 R1=0.00046892 X1=7.497e-05 R0=0.0026495 X0=0.00010096 length=33.4 units=m Normamps=175
New Line.Tx623096-lv_cable36041107_02 Bus1=bus_36041160.1.2.3 Bus2=bus_36041846.1.2.3 phases=3 R1=0.00046929 X1=7.5e-05 R0=0.0026515 X0=0.00010103 length=12.6 units=m Normamps=175
New Line.Tx623096-lv_cable36041107_03 Bus1=bus_36041846.1.2.3 Bus2=bus_36041785.1.2.3 phases=3 R1=0.00046889 X1=7.4889e-05 R0=0.0026498 X0=0.00010089 length=4.5 units=m Normamps=175
New Line.Tx623096-lv_cable36052026_01 Bus1=bus_36052463.1.2.3 Bus2=bus_36052577.1.2.3 phases=3 R1=0.00046491 X1=7.434e-05 R0=0.0026266 X0=0.0001 length=5.3 units=m Normamps=175
New Line.Tx623096-lv_cable36052026_02 Bus1=bus_36052577.1.2.3 Bus2=bus_36052580.1.2.3 phases=3 R1=0.00046828 X1=7.4828e-05 R0=0.0026453 X0=0.00010086 length=5.8 units=m Normamps=175
New Line.Tx623096-lv_cable36052026_03 Bus1=bus_36052580.1.2.3 Bus2=bus_36052584.1.2.3 phases=3 R1=0.00046833 X1=7.4762e-05 R0=0.0026464 X0=0.00010095 length=4.2 units=m Normamps=175
New Line.Tx623096-lv_cable36052026_04 Bus1=bus_36052584.1.2.3 Bus2=bus_36085400.1.2.3 phases=3 R1=0.00046944 X1=7.5e-05 R0=0.0026528 X0=0.00010111 length=3.6 units=m Normamps=175
New Line.Tx623096-lv_cable36052026_05 Bus1=bus_36085400.1.2.3 Bus2=bus_36052466.1.2.3 phases=3 R1=0.00046489 X1=7.4255e-05 R0=0.002627 X0=0.0001 length=4.7 units=m Normamps=175
New Line.Tx623096-lv_cable36079658_01 Bus1=bus_36079960.1.2.3 Bus2=bus_36085256.1.2.3 phases=3 R1=0.00016671 X1=6.9286e-05 R0=0.00062771 X0=8.8429e-05 length=7 units=m Normamps=320
New Line.Tx623096-lv_cable36079658_02 Bus1=bus_36085256.1.2.3 Bus2=bus_492757285.1.2.3 phases=3 R1=0.00016585 X1=6.8946e-05 R0=0.00062441 X0=8.7891e-05 length=31.3 units=m Normamps=320
New Line.Tx623096-lv_cable36049102_01 Bus1=bus_36048858.1.2.3 Bus2=bus_36048802.1.2.3 phases=3 R1=0.00016493 X1=6.8493e-05 R0=0.00062096 X0=8.7397e-05 length=7.3 units=m Normamps=320
New Line.Tx623096-lv_cable36049102_02 Bus1=bus_36048802.1.2.3 Bus2=bus_36049388.1.2.3 phases=3 R1=0.0001661 X1=6.9049e-05 R0=0.00062538 X0=8.8052e-05 length=65.2 units=m Normamps=320
New Line.Tx623096-lv_cable36049102_03 Bus1=bus_36049388.1.2.3 Bus2=bus_36049400.1.2.3 phases=3 R1=0.00016606 X1=6.9038e-05 R0=0.00062524 X0=8.8029e-05 length=20.8 units=m Normamps=320
New Line.Tx623096-lv_cable415529451_01 Bus1=bus_36052463.1.2.3 Bus2=bus_36082682.1.2.3 phases=3 R1=0.0004697 X1=7.5113e-05 R0=0.0026539 X0=0.00010117 length=26.6 units=m Normamps=175
New Line.Tx623096-lv_cable415529451_02 Bus1=bus_36082682.1.2.3 Bus2=bus_36040625_01.1.2.3 phases=3 R1=0.00046882 X1=7.4966e-05 R0=0.002649 X0=0.00010096 length=103.5 units=m Normamps=175
New Line.Tx623096-lv_cable36041450_01 Bus1=bus_36041406.1.2.3 Bus2=bus_36049330.1.2.3 phases=3 R1=0.00016607 X1=6.9036e-05 R0=0.00062528 X0=8.8048e-05 length=41.5 units=m Normamps=320
New Line.Tx623096-lv_cable36041450_02 Bus1=bus_36049330.1.2.3 Bus2=bus_36049329.1.2.3 phases=3 R1=0.00016714 X1=7e-05 R0=0.00063 X0=8.8571e-05 length=0.7 units=m Normamps=320
New Line.Tx623096-lv_cable36041450_03 Bus1=bus_36049329.1.2.3 Bus2=bus_36049323.1.2.3 phases=3 R1=0.00016652 X1=6.922e-05 R0=0.00062709 X0=8.8298e-05 length=14.1 units=m Normamps=320
New Line.Tx623096-lv_cable36041450_04 Bus1=bus_36049323.1.2.3 Bus2=bus_36049305.1.2.3 phases=3 R1=0.0001662 X1=6.9077e-05 R0=0.00062572 X0=8.8081e-05 length=27.1 units=m Normamps=320
New Line.Tx623096-lv_cable36041450_05 Bus1=bus_36049305.1.2.3 Bus2=bus_36049292.1.2.3 phases=3 R1=0.0001659 X1=6.8975e-05 R0=0.00062466 X0=8.7951e-05 length=28.3 units=m Normamps=320
New Line.Tx623096-lv_cable36041450_06 Bus1=bus_36049292.1.2.3 Bus2=bus_36049282.1.2.3 phases=3 R1=0.00016569 X1=6.8889e-05 R0=0.00062392 X0=8.7843e-05 length=15.3 units=m Normamps=320
New Line.Tx623096-lv_cable36041450_07 Bus1=bus_36049282.1.2.3 Bus2=bus_36049449.1.2.3 phases=3 R1=0.00016603 X1=6.9007e-05 R0=0.00062496 X0=8.8014e-05 length=14.1 units=m Normamps=320
New Line.Tx623096-lv_cable36041450_08 Bus1=bus_36049449.1.2.3 Bus2=bus_36049417.1.2.3 phases=3 R1=0.00016536 X1=6.8763e-05 R0=0.00062268 X0=8.7629e-05 length=9.7 units=m Normamps=320
New Line.Tx623096-lv_cable36041450_09 Bus1=bus_36049417.1.2.3 Bus2=bus_36067857.1.2.3 phases=3 R1=0.00016581 X1=6.9032e-05 R0=0.00062387 X0=8.7742e-05 length=3.1 units=m Normamps=320
New Line.Tx623096-lv_cable36041450_10 Bus1=bus_36067857.1.2.3 Bus2=bus_36067928.1.2.3 phases=3 R1=0.00016567 X1=6.8867e-05 R0=0.0006238 X0=8.78e-05 length=15 units=m Normamps=320
New Line.Tx623096-lv_cable36051983_01 Bus1=bus_36052463.1.2.3 Bus2=bus_36052576.1.2.3 phases=3 R1=0.00044167 X1=7e-05 R0=0.0024967 X0=9.5e-05 length=0.6 units=m Normamps=175
New Line.Tx623096-lv_cable36051983_02 Bus1=bus_36052576.1.2.3 Bus2=bus_36052458.1.2.3 phases=3 R1=0.00047193 X1=7.5439e-05 R0=0.0026661 X0=0.00010158 length=5.7 units=m Normamps=175
New Line.Tx623096-lv_cable539393270_01 Bus1=bus_36048851.1.2.3 Bus2=bus_36048843.1.2.3 phases=3 R1=0.000168 X1=7e-05 R0=0.000634 X0=8.9e-05 length=1 units=m Normamps=320
New Line.Tx623096-lv_cable539393270_02 Bus1=bus_36048843.1.2.3 Bus2=bus_36049003.1.2.3 phases=3 R1=0.0001692 X1=7.04e-05 R0=0.0006364 X0=8.96e-05 length=2.5 units=m Normamps=320
New Line.Tx623096-lv_cable539393270_03 Bus1=bus_36049003.1.2.3 Bus2=bus_36048842.1.2.3 phases=3 R1=0.00016619 X1=6.9167e-05 R0=0.00062595 X0=8.8095e-05 length=8.4 units=m Normamps=320
New Line.Tx623096-lv_cable539393270_04 Bus1=bus_36048842.1.2.3 Bus2=bus_539393274.1.2.3 phases=3 R1=0.00016637 X1=6.9194e-05 R0=0.00062637 X0=8.8226e-05 length=12.4 units=m Normamps=320
New Line.Tx623096-lv_cable36041416_01 Bus1=bus_522225316.1.2.3 Bus2=bus_36049679.1.2.3 phases=3 R1=0.00016561 X1=6.8864e-05 R0=0.00062348 X0=8.7803e-05 length=13.2 units=m Normamps=320
New Line.Tx623096-lv_cable36041416_02 Bus1=bus_36049679.1.2.3 Bus2=bus_36049400.1.2.3 phases=3 R1=0.00016616 X1=6.9057e-05 R0=0.00062566 X0=8.8081e-05 length=29.7 units=m Normamps=320
New Line.Tx623096-lv_cable36052041_01 Bus1=bus_36052466.1.2.3 Bus2=bus_36052591.1.2.3 phases=3 R1=0.00046607 X1=7.4643e-05 R0=0.0026325 X0=0.00010036 length=2.8 units=m Normamps=175
New Line.Tx623096-lv_cable36052041_02 Bus1=bus_36052591.1.2.3 Bus2=bus_36052595.1.2.3 phases=3 R1=0.00047153 X1=7.5412e-05 R0=0.0026644 X0=0.00010153 length=8.5 units=m Normamps=175
New Line.Tx623096-lv_cable36052041_03 Bus1=bus_36052595.1.2.3 Bus2=bus_36052452.1.2.3 phases=3 R1=0.00046529 X1=7.4412e-05 R0=0.0026285 X0=0.00010029 length=3.4 units=m Normamps=175
New Line.Tx623096-lv_cable36040637_01 Bus1=bus_36040650.1.2.3 Bus2=bus_36080086.1.2.3 phases=3 R1=0.00044623 X1=7.1035e-05 R0=0.0025413 X0=9.105e-05 length=65.7 units=m Normamps=160
New Line.Tx623096-lv_cable36040637_02 Bus1=bus_36080086.1.2.3 Bus2=bus_36041773.1.2.3 phases=3 R1=0.00044466 X1=7.0822e-05 R0=0.0025321 X0=9.0685e-05 length=7.3 units=m Normamps=160
New Line.Tx623096-lv_cable36040637_03 Bus1=bus_36041773.1.2.3 Bus2=bus_36080096.1.2.3 phases=3 R1=0.00044182 X1=7e-05 R0=0.0025164 X0=9e-05 length=1.1 units=m Normamps=160
New Line.Tx623096-lv_cable36061727_01 Bus1=bus_36041876.1.2.3 Bus2=bus_36041825.1.2.3 phases=3 R1=0.00012689 X1=7.2951e-05 R0=0.00061842 X0=0.00010891 length=18.3 units=m Normamps=370
New Line.Tx623096-lv_cable36061727_02 Bus1=bus_36041825.1.2.3 Bus2=bus_36041823.1.2.3 phases=3 R1=0.00012708 X1=7.3036e-05 R0=0.00061929 X0=0.00010905 length=16.8 units=m Normamps=370
New Line.Tx623096-lv_cable36061727_03 Bus1=bus_36041823.1.2.3 Bus2=bus_36041820.1.2.3 phases=3 R1=0.00012839 X1=7.3871e-05 R0=0.00062516 X0=0.00011 length=3.1 units=m Normamps=370
New Line.Tx623096-lv_cable36061727_04 Bus1=bus_36041820.1.2.3 Bus2=bus_36041816.1.2.3 phases=3 R1=0.0001269 X1=7.3e-05 R0=0.0006186 X0=0.0001089 length=10 units=m Normamps=370
New Line.Tx623096-lv_cable36061727_05 Bus1=bus_36041816.1.2.3 Bus2=bus_36086055.1.2.3 phases=3 R1=0.00012674 X1=7.2899e-05 R0=0.0006179 X0=0.00010877 length=13.8 units=m Normamps=370
New Line.Tx623096-lv_cable36061727_06 Bus1=bus_36086055.1.2.3 Bus2=bus_462294722.1.2.3 phases=3 R1=0.0001283 X1=7.3617e-05 R0=0.00062511 X0=0.00011 length=4.7 units=m Normamps=370
New Line.Tx623096-lv_cable36061727_07 Bus1=bus_462294722.1.2.3 Bus2=bus_36041814.1.2.3 phases=3 R1=0.00012667 X1=7.2857e-05 R0=0.00061754 X0=0.00010873 length=12.6 units=m Normamps=370
New Line.Tx623096-lv_cable36061727_08 Bus1=bus_36041814.1.2.3 Bus2=bus_36041809.1.2.3 phases=3 R1=0.00012444 X1=7.1111e-05 R0=0.00060556 X0=0.00010667 length=0.9 units=m Normamps=370
New Line.Tx623096-lv_cable36061727_09 Bus1=bus_36041809.1.2.3 Bus2=bus_36061704.1.2.3 phases=3 R1=0.0001268 X1=7.29e-05 R0=0.00061799 X0=0.00010881 length=26.9 units=m Normamps=370
New Line.Tx623096-lv_cable36061727_10 Bus1=bus_36061704.1.2.3 Bus2=bus_36061711.1.2.3 phases=3 R1=0.00012795 X1=7.3636e-05 R0=0.00062386 X0=0.00010977 length=4.4 units=m Normamps=370
New Line.Tx623096-lv_cable36061727_11 Bus1=bus_36061711.1.2.3 Bus2=bus_36061710.1.2.3 phases=3 R1=0.000133 X1=7.6e-05 R0=0.000646 X0=0.000114 length=1 units=m Normamps=370
New Line.Tx623096-lv_cable36061727_12 Bus1=bus_36061710.1.2.3 Bus2=bus_36061717.1.2.3 phases=3 R1=0.00012691 X1=7.2958e-05 R0=0.00061859 X0=0.00010894 length=31.1 units=m Normamps=370
New Line.Tx623096-lv_cable36048556_01 Bus1=bus_36086723.1.2.3 Bus2=bus_36048794.1.2.3 phases=3 R1=0.00016579 X1=6.8947e-05 R0=0.00062439 X0=8.7895e-05 length=5.7 units=m Normamps=320
New Line.Tx623096-lv_cable36048556_02 Bus1=bus_36048794.1.2.3 Bus2=bus_36048861.1.2.3 phases=3 R1=0.00016606 X1=6.9055e-05 R0=0.00062528 X0=8.8031e-05 length=12.7 units=m Normamps=320
New Line.Tx623096-lv_cable36041342_01 Bus1=bus_36041785.1.2.3 Bus2=bus_36041347.1.2.3 phases=3 R1=0.00045545 X1=7.2727e-05 R0=0.0025709 X0=9.8182e-05 length=1.1 units=m Normamps=175
New Line.Tx623096-lv_cable36041342_02 Bus1=bus_36041347.1.2.3 Bus2=bus_36041351.1.2.3 phases=3 R1=0.00047196 X1=7.549e-05 R0=0.0026671 X0=0.00010157 length=5.1 units=m Normamps=175
New Line.Tx623096-lv_cable36041342_03 Bus1=bus_36041351.1.2.3 Bus2=bus_543610172.1.2.3 phases=3 R1=0.0004716 X1=7.5333e-05 R0=0.0026644 X0=0.0001016 length=7.5 units=m Normamps=175
New Line.Tx623096-lv_cable36041342_04 Bus1=bus_543610172.1.2.3 Bus2=bus_36041355.1.2.3 phases=3 R1=0.00047071 X1=7.5e-05 R0=0.0026614 X0=0.00010143 length=1.4 units=m Normamps=175
New Line.Tx623096-lv_cable36041342_05 Bus1=bus_36041355.1.2.3 Bus2=bus_36041360.1.2.3 phases=3 R1=0.00045 X1=7.2222e-05 R0=0.00254 X0=9.6667e-05 length=0.9 units=m Normamps=175
New Line.Tx623096-lv_cable36041342_06 Bus1=bus_36041360.1.2.3 Bus2=bus_36041363.1.2.3 phases=3 R1=0.00046444 X1=7.4444e-05 R0=0.0026211 X0=0.0001 length=0.9 units=m Normamps=175
