cases/221_bus_real_UK_case/lv_service_221_bus_UK.txt
New Line.Tx623096-lv_service36052277 Bus1=bus_36052659_01.1.2.3 Bus2=bus_36052580.1.2.3 phases=3 R1=0.00086795 X1=7.6986e-05 R0=0.00097301 X0=7.6986e-05 length=7.3 units=m Normamps=120
New Line.Tx623096-lv_service36052273 Bus1=bus_36052658_01.1.2.3 Bus2=bus_36052577.1.2.3 phases=3 R1=0.00086797 X1=7.6962e-05 R0=0.00097304 X0=7.6962e-05 length=7.9 units=m Normamps=120
New Line.Tx623096-lv_service36067225 Bus1=bus_36067229_01.1.2.3 Bus2=bus_36067288.1.2.3 phases=3 R1=0.00086778 X1=7.7222e-05 R0=0.00097278 X0=7.7222e-05 length=1.8 units=m Normamps=58
New Line.Tx623096-lv_service36079743 Bus1=bus_36079885_01.1.2.3 Bus2=bus_36079933.1.2.3 phases=3 R1=0.00086802 X1=7.7005e-05 R0=0.000973 X0=7.7005e-05 length=21.7 units=m Normamps=116
New Line.Tx623096-lv_service36048730 Bus1=bus_36048843.1.2.3 Bus2=bus_36048909_01.1.2.3 phases=3 R1=0.00086804 X1=7.6964e-05 R0=0.00097304 X0=7.6964e-05 length=5.6 units=m Normamps=58
New Line.Tx623096-lv_service36085370 Bus1=bus_36085070.1.2.3 Bus2=bus_36040756.1.2.3 phases=3 R1=0.00086803 X1=7.697e-05 R0=0.00097303 X0=7.697e-05 length=6.6 units=m Normamps=116
New Line.Tx623096-lv_service36067863 Bus1=bus_36067895.1.2.3 Bus2=bus_36067900_01.1.2.3 phases=3 R1=0.000868 X1=7.704e-05 R0=0.00097296 X0=7.704e-05 length=12.5 units=m Normamps=126
New Line.Tx623096-lv_service36048741 Bus1=bus_36048794.1.2.3 Bus2=bus_36048797.1.2.3 phases=3 R1=0.000868 X1=7.6971e-05 R0=0.00097303 X0=7.6971e-05 length=17.5 units=m Normamps=120
New Line.Tx623096-lv_service36048743 Bus1=bus_36048801.1.2.3 Bus2=bus_36048797.1.2.3 phases=3 R1=0.00086802 X1=7.6979e-05 R0=0.00097302 X0=7.6979e-05 length=19.2 units=m Normamps=165
New Line.Tx623096-lv_service36048747 Bus1=bus_36048968_01.1.2.3 Bus2=bus_36048797.1.2.3 phases=3 R1=0.0012 X1=7.7059e-05 R0=0.001345 X0=7.7059e-05 length=3.4 units=m Normamps=116
New Line.Tx623096-lv_service36041503 Bus1=bus_36049330.1.2.3 Bus2=bus_36041538.1.2.3 phases=3 R1=0.00086798 X1=7.6995e-05 R0=0.00097301 X0=7.6995e-05 length=19.3 units=m Normamps=154
New Line.Tx623096-lv_service36041299 Bus1=bus_36041347.1.2.3 Bus2=bus_36041801_01.1.2.3 phases=3 R1=0.00086804 X1=7.6964e-05 R0=0.00097304 X0=7.6964e-05 length=11.2 units=m Normamps=120
New Line.Tx623096-lv_service36041489 Bus1=bus_36041546.1.2.3 Bus2=bus_36041543_01.1.2.3 phases=3 R1=0.00086797 X1=7.6992e-05 R0=0.00097301 X0=7.6992e-05 length=12.3 units=m Normamps=126
New Line.Tx623096-lv_service36061720 Bus1=bus_36061721.1.2.3 Bus2=bus_36061723_01.1.2.3 phases=3 R1=0.00086833 X1=7.6667e-05 R0=0.00097333 X0=7.6667e-05 length=1.2 units=m Normamps=58
New Line.Tx623096-lv_service36049163 Bus1=bus_36049292.1.2.3 Bus2=bus_36049302.1.2.3 phases=3 R1=0.00086797 X1=7.6993e-05 R0=0.00097301 X0=7.6993e-05 length=15.3 units=m Normamps=126
New Line.Tx623096-lv_service36049161 Bus1=bus_36049292.1.2.3 Bus2=bus_36049462_01.1.2.3 phases=3 R1=0.00086791 X1=7.6977e-05 R0=0.00097302 X0=7.6977e-05 length=4.3 units=m Normamps=126
New Line.Tx623096-lv_service36041477 Bus1=bus_36041525_01.1.2.3 Bus2=bus_36041546.1.2.3 phases=3 R1=0.00086798 X1=7.6966e-05 R0=0.00097303 X0=7.6966e-05 length=8.9 units=m Normamps=58
New Line.Tx623096-lv_service36041184 Bus1=bus_36041196.1.2.3 Bus2=bus_36041846.1.2.3 phases=3 R1=0.00086795 X1=7.7051e-05 R0=0.00091 X0=7.7051e-05 length=7.8 units=m Normamps=165
New Line.Tx623096-lv_service36086052 Bus1=bus_36086054_01.1.2.3 Bus2=bus_36086055.1.2.3 phases=3 R1=0.000868 X1=7.6994e-05 R0=0.00097301 X0=7.6994e-05 length=48.9 units=m Normamps=120
New Line.Tx623096-lv_service36067342 Bus1=bus_36067420.1.2.3 Bus2=bus_36067434_01.1.2.3 phases=3 R1=0.00086788 X1=7.697e-05 R0=0.00097303 X0=7.697e-05 length=3.3 units=m Normamps=126
New Line.Tx623096-lv_service36048709 Bus1=bus_36048827.1.2.3 Bus2=bus_36048953_01.1.2.3 phases=3 R1=0.00086798 X1=7.7021e-05 R0=0.00097298 X0=7.7021e-05 length=9.4 units=m Normamps=154
New Line.Tx623096-lv_service36048664 Bus1=bus_36048808.1.2.3 Bus2=bus_36048964_01.1.2.3 phases=3 R1=0.0012 X1=7.7014e-05 R0=0.001345 X0=7.7014e-05 length=22.1 units=m Normamps=116
New Line.Tx623096-lv_service36040656 Bus1=bus_36040650.1.2.3 Bus2=bus_36040958.1.2.3 phases=3 R1=0.00086803 X1=7.7049e-05 R0=0.00097295 X0=7.7049e-05 length=6.1 units=m Normamps=163
New Line.Tx623096-lv_service36052292 Bus1=bus_36052595.1.2.3 Bus2=bus_36041258_01.1.2.3 phases=3 R1=0.00086797 X1=7.7034e-05 R0=0.00097297 X0=7.7034e-05 length=11.8 units=m Normamps=120
New Line.Tx623096-lv_service36041830 Bus1=bus_36041145_01.1.2.3 Bus2=bus_36041151.1.2.3 phases=3 R1=0.00086833 X1=7.6667e-05 R0=0.00097333 X0=7.6667e-05 length=0.6 units=m Normamps=58
New Line.Tx623096-lv_service36041718 Bus1=bus_36041825.1.2.3 Bus2=bus_36041871_01.1.2.3 phases=3 R1=0.00086833 X1=7.6667e-05 R0=0.00097333 X0=7.6667e-05 length=0.6 units=m Normamps=58
New Line.Tx623096-lv_service36041659 Bus1=bus_36041809.1.2.3 Bus2=bus_36041861_01.1.2.3 phases=3 R1=0.00086796 X1=7.7037e-05 R0=0.00097296 X0=7.7037e-05 length=10.8 units=m Normamps=58
New Line.Tx623096-lv_service36040965 Bus1=bus_36040669.1.2.3 Bus2=bus_36040958.1.2.3 phases=3 R1=0.000868 X1=7.6923e-05 R0=0.00097292 X0=7.6923e-05 length=6.5 units=m Normamps=163
New Line.Tx623096-lv_service36041323 Bus1=bus_36041351.1.2.3 Bus2=bus_36041804_01.1.2.3 phases=3 R1=0.00086803 X1=7.7009e-05 R0=0.00097299 X0=7.7009e-05 length=11.7 units=m Normamps=120
New Line.Tx623096-lv_service36041329 Bus1=bus_36041355.1.2.3 Bus2=bus_36041806_01.1.2.3 phases=3 R1=0.00086796 X1=7.6991e-05 R0=0.00097301 X0=7.6991e-05 length=11.3 units=m Normamps=120
New Line.Tx623096-lv_service36067571 Bus1=bus_36049305.1.2.3 Bus2=bus_36067601_01.1.2.3 phases=3 R1=0.00086801 X1=7.6992e-05 R0=0.00097301 X0=7.6992e-05 length=49.2 units=m Normamps=126
New Line.Tx623096-lv_service36049208 Bus1=bus_36049305.1.2.3 Bus2=bus_36049367.1.2.3 phases=3 R1=0.000868 X1=7.7e-05 R0=0.000973 X0=7.7e-05 length=23 units=m Normamps=154
New Line.Tx623096-lv_service36049202 Bus1=bus_36049354.1.2.3 Bus2=bus_36049358.1.2.3 phases=3 R1=0.00086797 X1=7.7034e-05 R0=0.00097297 X0=7.7034e-05 length=11.8 units=m Normamps=154
New Line.Tx623096-lv_service36049200 Bus1=bus_36049354.1.2.3 Bus2=bus_36049410_01.1.2.3 phases=3 R1=0.00086786 X1=7.7143e-05 R0=0.00097286 X0=7.7143e-05 length=1.4 units=m Normamps=58
New Line.Tx623096-lv_service36049206 Bus1=bus_36049362.1.2.3 Bus2=bus_36049503_01.1.2.3 phases=3 R1=0.00086798 X1=7.6966e-05 R0=0.00097303 X0=7.6966e-05 length=8.9 units=m Normamps=154
New Line.Tx623096-lv_service36049204 Bus1=bus_36049358.1.2.3 Bus2=bus_36049362.1.2.3 phases=3 R1=0.00086796 X1=7.699e-05 R0=0.00097301 X0=7.699e-05 length=10.3 units=m Normamps=154
New Line.Tx623096-lv_service36079751 Bus1=bus_36079884_01.1.2.3 Bus2=bus_36079933.1.2.3 phases=3 R1=0.00086798 X1=7.7016e-05 R0=0.00097298 X0=7.7016e-05 length=24.8 units=m Normamps=116
New Line.Tx623096-lv_service543610173 Bus1=bus_543610172.1.2.3 Bus2=bus_543610174.1.2.3 phases=3 R1=0.000166 X1=7.4e-05 R0=0.000658 X0=0.000112 length=1 units=m Normamps=280
New Line.Tx623096-lv_service36085367 Bus1=bus_36080086.1.2.3 Bus2=bus_36040756.1.2.3 phases=3 R1=0.00086802 X1=7.7005e-05 R0=0.00097299 X0=7.7005e-05 length=18.7 units=m Normamps=126
New Line.Tx623096-lv_service36048991 Bus1=bus_36049000_01.1.2.3 Bus2=bus_36049003.1.2.3 phases=3 R1=0.00086806 X1=7.6935e-05 R0=0.00097306 X0=7.6935e-05 length=6.2 units=m Normamps=58
New Line.Tx623096-lv_service36061695 Bus1=bus_36061699_01.1.2.3 Bus2=bus_36061704.1.2.3 phases=3 R1=0.00086786 X1=7.7143e-05 R0=0.00097286 X0=7.7143e-05 length=1.4 units=m Normamps=58
New Line.Tx623096-lv_service36040617 Bus1=bus_36040628_01.1.2.3 Bus2=bus_36040624.1.2.3 phases=3 R1=0.00086786 X1=7.7143e-05 R0=0.00097286 X0=7.7143e-05 length=1.4 units=m Normamps=58
New Line.Tx623096-lv_service36048752 Bus1=bus_36048801.1.2.3 Bus2=bus_36048973_01.1.2.3 phases=3 R1=0.0012 X1=7.7e-05 R0=0.001345 X0=7.7e-05 length=5 units=m Normamps=116
New Line.Tx623096-lv_service36048750 Bus1=bus_36048970_01.1.2.3 Bus2=bus_36048797.1.2.3 phases=3 R1=0.0012 X1=7.7027e-05 R0=0.0013451 X0=7.7027e-05 length=3.7 units=m Normamps=116
New Line.Tx623096-lv_service36048755 Bus1=bus_36048801.1.2.3 Bus2=bus_36048977_01.1.2.3 phases=3 R1=0.0012 X1=7.7031e-05 R0=0.001345 X0=7.7031e-05 length=6.4 units=m Normamps=116
New Line.Tx623096-lv_service36048692 Bus1=bus_36048815.1.2.3 Bus2=bus_36048910_01.1.2.3 phases=3 R1=0.00086792 X1=7.6981e-05 R0=0.00097302 X0=7.6981e-05 length=5.3 units=m Normamps=58
New Line.Tx623096-lv_service36048697 Bus1=bus_36048815.1.2.3 Bus2=bus_36048945_01.1.2.3 phases=3 R1=0.0012 X1=7.6984e-05 R0=0.001345 X0=7.6984e-05 length=12.6 units=m Normamps=126
New Line.Tx623096-lv_service36040765 Bus1=bus_36040756.1.2.3 Bus2=bus_36040780_01.1.2.3 phases=3 R1=0.000868 X1=7.6923e-05 R0=0.00097292 X0=7.6923e-05 length=6.5 units=m Normamps=126
New Line.Tx623096-lv_service36041665 Bus1=bus_36041814.1.2.3 Bus2=bus_36041829_01.1.2.3 phases=3 R1=0.0012 X1=7.7007e-05 R0=0.001345 X0=7.7007e-05 length=41.1 units=m Normamps=116
New Line.Tx623096-lv_service36041191 Bus1=bus_36041196.1.2.3 Bus2=bus_36041228_01.1.2.3 phases=3 R1=0.00086804 X1=7.7009e-05 R0=0.00097299 X0=7.7009e-05 length=10.7 units=m Normamps=120
New Line.Tx623096-lv_service36049252 Bus1=bus_36049378.1.2.3 Bus2=bus_36049478_01.1.2.3 phases=3 R1=0.00086806 X1=7.7015e-05 R0=0.00097299 X0=7.7015e-05 length=6.7 units=m Normamps=126
New Line.Tx623096-lv_service36049256 Bus1=bus_36049329.1.2.3 Bus2=bus_36049378.1.2.3 phases=3 R1=0.000868 X1=7.6933e-05 R0=0.00097293 X0=7.6933e-05 length=7.5 units=m Normamps=154
New Line.Tx623096-lv_service500203757 Bus1=bus_500203759.1.2.3 Bus2=bus_36048811.1.2.3 phases=3 R1=0.0012 X1=7.7049e-05 R0=0.0013449 X0=7.7049e-05 length=6.1 units=m Normamps=116
New Line.Tx623096-lv_service500203756 Bus1=bus_500203758.1.2.3 Bus2=bus_36048810.1.2.3 phases=3 R1=0.0012 X1=7.7027e-05 R0=0.001345 X0=7.7027e-05 length=7.4 units=m Normamps=116
New Line.Tx623096-lv_service36067443 Bus1=bus_36067551.1.2.3 Bus2=bus_36067558_01.1.2.3 phases=3 R1=0.000868 X1=7.7e-05 R0=0.000973 X0=7.7e-05 length=7 units=m Normamps=126
New Line.Tx623096-lv_service462294723 Bus1=bus_462294722.1.2.3 Bus2=bus_462294724_01.1.2.3 phases=3 R1=0.000868 X1=7.6994e-05 R0=0.00097301 X0=7.6994e-05 length=46.9 units=m Normamps=154
New Line.Tx623096-lv_service36067202 Bus1=bus_36067229_01.1.2.3 Bus2=bus_36067611_01.1.2.3 phases=3 R1=0.000868 X1=7.7e-05 R0=0.000973 X0=7.7e-05 length=33 units=m Normamps=58
New Line.Tx623096-lv_service36049156 Bus1=bus_36049287.1.2.3 Bus2=bus_36049456_01.1.2.3 phases=3 R1=0.00086806 X1=7.7015e-05 R0=0.00097299 X0=7.7015e-05 length=6.7 units=m Normamps=126
New Line.Tx623096-lv_service36040852 Bus1=bus_36085070.1.2.3 Bus2=bus_36040862_01.1.2.3 phases=3 R1=0.000868 X1=7.7e-05 R0=0.000973 X0=7.7e-05 length=37 units=m Normamps=126
New Line.Tx623096-lv_service36048718 Bus1=bus_539393275.1.2.3 Bus2=bus_36048939_01.1.2.3 phases=3 R1=0.0012 X1=7.6905e-05 R0=0.001345 X0=7.6905e-05 length=4.2 units=m Normamps=116
New Line.Tx623096-lv_service36048714 Bus1=bus_36048827.1.2.3 Bus2=bus_36048924_01.1.2.3 phases=3 R1=0.00086799 X1=7.7008e-05 R0=0.00097299 X0=7.7008e-05 length=25.4 units=m Normamps=58
New Line.Tx623096-lv_service36041148 Bus1=bus_36041151.1.2.3 Bus2=bus_36041160.1.2.3 phases=3 R1=0.00086824 X1=7.7059e-05 R0=0.00097294 X0=7.7059e-05 length=1.7 units=m Normamps=58
New Line.Tx623096-lv_service36041706 Bus1=bus_36041774_01.1.2.3 Bus2=bus_36080096.1.2.3 phases=3 R1=0.00086801 X1=7.7011e-05 R0=0.00097299 X0=7.7011e-05 length=28.1 units=m Normamps=126
New Line.Tx623096-lv_service36041134 Bus1=bus_36041838.1.2.3 Bus2=bus_505697596.1.2.3 phases=3 R1=0.00461 X1=9.0968e-05 R0=0.00515 X0=9.0968e-05 length=3.1 units=m Normamps=58
New Line.Tx623096-lv_service36041136 Bus1=bus_36041145_01.1.2.3 Bus2=bus_36041838.1.2.3 phases=3 R1=0.0008675 X1=7.75e-05 R0=0.0009725 X0=7.75e-05 length=0.4 units=m Normamps=58
New Line.Tx623096-lv_service36041685 Bus1=bus_36041816.1.2.3 Bus2=bus_36041866_01.1.2.3 phases=3 R1=0.000868 X1=7.8e-05 R0=0.000974 X0=7.8e-05 length=0.5 units=m Normamps=58
New Line.Tx623096-lv_service36049442 Bus1=bus_36049449.1.2.3 Bus2=bus_36049542_01.1.2.3 phases=3 R1=0.00086801 X1=7.6989e-05 R0=0.00097301 X0=7.6989e-05 length=18.6 units=m Normamps=126
New Line.Tx623096-lv_service519645837 Bus1=bus_519645833.1.2.3 Bus2=bus_519645832.1.2.3 phases=3 R1=0.00086857 X1=7.7143e-05 R0=0.00097286 X0=7.7143e-05 length=0.7 units=m Normamps=154
New Line.Tx623096-lv_service519645834 Bus1=bus_519645832.1.2.3 Bus2=bus_36041823.1.2.3 phases=3 R1=0.00086833 X1=7.6667e-05 R0=0.00097333 X0=7.6667e-05 length=0.6 units=m Normamps=154
New Line.Tx623096-lv_service36049260 Bus1=bus_36049329.1.2.3 Bus2=bus_36049409_01.1.2.3 phases=3 R1=0.000868 X1=7.72e-05 R0=0.0009732 X0=7.72e-05 length=2.5 units=m Normamps=120
New Line.Tx623096-lv_service36049197 Bus1=bus_36049305.1.2.3 Bus2=bus_36049354.1.2.3 phases=3 R1=0.000868 X1=7.7034e-05 R0=0.00097297 X0=7.7034e-05 length=14.5 units=m Normamps=154
New Line.Tx623096-lv_service36049193 Bus1=bus_36049323.1.2.3 Bus2=bus_36049475_01.1.2.3 phases=3 R1=0.00086797 X1=7.7034e-05 R0=0.00097297 X0=7.7034e-05 length=11.8 units=m Normamps=126
New Line.Tx623096-lv_service36049216 Bus1=bus_36049367.1.2.3 Bus2=bus_36049497_01.1.2.3 phases=3 R1=0.00086801 X1=7.7013e-05 R0=0.00097299 X0=7.7013e-05 length=23.1 units=m Normamps=126
New Line.Tx623096-lv_service539393277 Bus1=bus_539393274.1.2.3 Bus2=bus_539393275.1.2.3 phases=3 R1=0.0012 X1=7.72e-05 R0=0.0013452 X0=7.72e-05 length=2.5 units=m Normamps=116
New Line.Tx623096-lv_service36052281 Bus1=bus_36041079.1.2.3 Bus2=bus_36052584.1.2.3 phases=3 R1=0.00086804 X1=7.6961e-05 R0=0.00091 X0=7.6961e-05 length=10.2 units=m Normamps=165
New Line.Tx623096-lv_service36085399 Bus1=bus_36052585.1.2.3 Bus2=bus_36085400.1.2.3 phases=3 R1=0.000868 X1=7.7e-05 R0=0.000973 X0=7.7e-05 length=3 units=m Normamps=58
New Line.Tx623096-lv_service36049159 Bus1=bus_36049292.1.2.3 Bus2=bus_36049414_01.1.2.3 phases=3 R1=0.00086789 X1=7.6842e-05 R0=0.00097316 X0=7.6842e-05 length=1.9 units=m Normamps=58
New Line.Tx623096-lv_service36074989 Bus1=bus_36067288.1.2.3 Bus2=bus_36067317.1.2.3 phases=3 R1=0.000868 X1=7.7e-05 R0=0.000973 X0=7.7e-05 length=7 units=m Normamps=154
New Line.Tx623096-lv_service36067297 Bus1=bus_36067317.1.2.3 Bus2=bus_36067332_01.1.2.3 phases=3 R1=0.00086797 X1=7.6962e-05 R0=0.00097304 X0=7.6962e-05 length=7.9 units=m Normamps=126
New Line.Tx623096-lv_service36048689 Bus1=bus_36048815.1.2.3 Bus2=bus_36048943_01.1.2.3 phases=3 R1=0.0012 X1=7.6966e-05 R0=0.0013451 X0=7.6966e-05 length=8.9 units=m Normamps=116
New Line.Tx623096-lv_service36048760 Bus1=bus_36048802.1.2.3 Bus2=bus_36048982_01.1.2.3 phases=3 R1=0.0012 X1=7.7059e-05 R0=0.001345 X0=7.7059e-05 length=3.4 units=m Normamps=116
New Line.Tx623096-lv_service36048687 Bus1=bus_36048813.1.2.3 Bus2=bus_36048815.1.2.3 phases=3 R1=0.0012 X1=7.6897e-05 R0=0.0013448 X0=7.6897e-05 length=2.9 units=m Normamps=116
New Line.Tx623096-lv_service36048683 Bus1=bus_36048812.1.2.3 Bus2=bus_36048950_01.1.2.3 phases=3 R1=0.0012 X1=7.698e-05 R0=0.001345 X0=7.698e-05 length=25.5 units=m Normamps=116
New Line.Tx623096-lv_service36049235 Bus1=bus_36048896.1.2.3 Bus2=bus_36049405_01.1.2.3 phases=3 R1=0.000868 X1=7.7e-05 R0=0.000973 X0=7.7e-05 length=26 units=m Normamps=58
New Line.Tx623096-lv_service36082681 Bus1=bus_36040624.1.2.3 Bus2=bus_36082682.1.2.3 phases=3 R1=0.000868 X1=7.8e-05 R0=0.000974 X0=7.8e-05 length=0.5 units=m Normamps=58
New Line.Tx623096-lv_service36040677 Bus1=bus_36040669.1.2.3 Bus2=bus_36040688_01.1.2.3 phases=3 R1=0.00086798 X1=7.6966e-05 R0=0.00097303 X0=7.6966e-05 length=8.9 units=m Normamps=163
New Line.Tx623096-lv_service36049225 Bus1=bus_36049388.1.2.3 Bus2=bus_36049488_01.1.2.3 phases=3 R1=0.0012 X1=7.7073e-05 R0=0.0013449 X0=7.7073e-05 length=4.1 units=m Normamps=116
New Line.Tx623096-lv_service36049228 Bus1=bus_36049483_01.1.2.3 Bus2=bus_36049679.1.2.3 phases=3 R1=0.0012 X1=7.6995e-05 R0=0.001345 X0=7.6995e-05 length=18.3 units=m Normamps=116
New Line.Tx623096-lv_service36041554 Bus1=bus_36041360.1.2.3 Bus2=bus_36041560_01.1.2.3 phases=3 R1=0.00086801 X1=7.6989e-05 R0=0.00091 X0=7.6989e-05 length=18.6 units=m Normamps=165
New Line.Tx623096-lv_service36059479 Bus1=bus_484819337.1.2.3 Bus2=bus_36061710.1.2.3 phases=3 R1=0.0012 X1=7.6992e-05 R0=0.001345 X0=7.6992e-05 length=37.9 units=m Normamps=116
New Line.Tx623096-lv_service36067242 Bus1=bus_36049417.1.2.3 Bus2=bus_36067288.1.2.3 phases=3 R1=0.00086799 X1=7.6997e-05 R0=0.000973 X0=7.6997e-05 length=34.3 units=m Normamps=154
New Line.Tx623096-lv_service36067364 Bus1=bus_36049417.1.2.3 Bus2=bus_36067420.1.2.3 phases=3 R1=0.00086801 X1=7.7002e-05 R0=0.000973 X0=7.7002e-05 length=50.7 units=m Normamps=154
New Line.Tx623096-lv_service36049136 Bus1=bus_36049413_01.1.2.3 Bus2=bus_36049417.1.2.3 phases=3 R1=0.00086818 X1=7.6818e-05 R0=0.00097318 X0=7.6818e-05 length=2.2 units=m Normamps=163
New Line.Tx623096-lv_service36049145 Bus1=bus_36049282.1.2.3 Bus2=bus_36049287.1.2.3 phases=3 R1=0.000868 X1=7.7e-05 R0=0.000973 X0=7.7e-05 length=6 units=m Normamps=126
New Line.Tx623096-lv_service36041908 Bus1=bus_36041861_01.1.2.3 Bus2=bus_36041869_01.1.2.3 phases=3 R1=0.00086799 X1=7.6983e-05 R0=0.00097302 X0=7.6983e-05 length=17.9 units=m Normamps=120
New Line.Tx623096-lv_service36052348 Bus1=bus_36052585.1.2.3 Bus2=bus_36052710_01.1.2.3 phases=3 R1=0.000868 X1=7.7e-05 R0=0.000973 X0=7.7e-05 length=1 units=m Normamps=58
New Line.Tx623096-lv_service36040842 Bus1=bus_36041852_01.1.2.3 Bus2=bus_36085070.1.2.3 phases=3 R1=0.000868 X1=7.698e-05 R0=0.00097302 X0=7.698e-05 length=25.5 units=m Normamps=126
New Line.Tx623096-lv_service36048722 Bus1=bus_36048842.1.2.3 Bus2=bus_36048935_01.1.2.3 phases=3 R1=0.0012 X1=7.6941e-05 R0=0.0013449 X0=7.6941e-05 length=8.5 units=m Normamps=116
New Line.Tx623096-lv_service36048725 Bus1=bus_36048842.1.2.3 Bus2=bus_36048933_01.1.2.3 phases=3 R1=0.0012 X1=7.6949e-05 R0=0.0013449 X0=7.6949e-05 length=5.9 units=m Normamps=116
New Line.Tx623096-lv_service36040554 Bus1=bus_36040581.1.2.3 Bus2=bus_36052576.1.2.3 phases=3 R1=0.000868 X1=7.7043e-05 R0=0.00091 X0=7.7043e-05 length=11.5 units=m Normamps=165
New Line.Tx623096-lv_service36067851 Bus1=bus_36067857.1.2.3 Bus2=bus_36067895.1.2.3 phases=3 R1=0.00086797 X1=7.6949e-05 R0=0.00097305 X0=7.6949e-05 length=5.9 units=m Normamps=126
New Line.Tx623096-lv_service36041075 Bus1=bus_36041079.1.2.3 Bus2=bus_36041089_01.1.2.3 phases=3 R1=0.00086802 X1=7.7033e-05 R0=0.00097297 X0=7.7033e-05 length=9.1 units=m Normamps=120
New Line.Tx623096-lv_service36049522 Bus1=bus_36049358.1.2.3 Bus2=bus_36049531_01.1.2.3 phases=3 R1=0.00086812 X1=7.6875e-05 R0=0.00097312 X0=7.6875e-05 length=3.2 units=m Normamps=154
New Line.Tx623096-lv_service36041735 Bus1=bus_36041766_01.1.2.3 Bus2=bus_36041773.1.2.3 phases=3 R1=0.000868 X1=7.6667e-05 R0=0.00097333 X0=7.6667e-05 length=1.5 units=m Normamps=116
New Line.Tx623096-lv_service36041518 Bus1=bus_36041538.1.2.3 Bus2=bus_36041546.1.2.3 phases=3 R1=0.00086798 X1=7.7016e-05 R0=0.00097298 X0=7.7016e-05 length=12.4 units=m Normamps=126
New Line.Tx623096-lv_service36041694 Bus1=bus_36041820.1.2.3 Bus2=bus_36041821.1.2.3 phases=3 R1=0.000868 X1=7.6667e-05 R0=0.00097333 X0=7.6667e-05 length=1.5 units=m Normamps=154
New Line.Tx623096-lv_service36041699 Bus1=bus_519645833.1.2.3 Bus2=bus_36041837_01.1.2.3 phases=3 R1=0.00086799 X1=7.701e-05 R0=0.00097299 X0=7.701e-05 length=41.8 units=m Normamps=154
New Line.Tx623096-lv_service36059304 Bus1=bus_36059307.1.2.3 Bus2=bus_36059330_01.1.2.3 phases=3 R1=0.00086769 X1=7.6923e-05 R0=0.00097308 X0=7.6923e-05 length=1.3 units=m Normamps=116
New Line.Tx623096-lv_service36049173 Bus1=bus_36049302.1.2.3 Bus2=bus_36049466_01.1.2.3 phases=3 R1=0.00086786 X1=7.7143e-05 R0=0.00097286 X0=7.7143e-05 length=2.8 units=m Normamps=126
New Line.Tx623096-lv_service36049178 Bus1=bus_36049314.1.2.3 Bus2=bus_36049470_01.1.2.3 phases=3 R1=0.00086803 X1=7.6974e-05 R0=0.00097303 X0=7.6974e-05 length=15.2 units=m Normamps=126
New Line.Tx623096-lv_service36049186 Bus1=bus_36049314.1.2.3 Bus2=bus_36049323.1.2.3 phases=3 R1=0.00086801 X1=7.6992e-05 R0=0.00097301 X0=7.6992e-05 length=24.6 units=m Normamps=154
New Line.Tx623096-lv_service36085246 Bus1=bus_36085250_01.1.2.3 Bus2=bus_36085256.1.2.3 phases=3 R1=0.0008681 X1=7.6905e-05 R0=0.0009731 X0=7.6905e-05 length=4.2 units=m Normamps=154
New Line.Tx623096-lv_service36067460 Bus1=bus_36067529.1.2.3 Bus2=bus_36067551.1.2.3 phases=3 R1=0.000868 X1=7.7e-05 R0=0.000973 X0=7.7e-05 length=8 units=m Normamps=126
New Line.Tx623096-lv_service36048772 Bus1=bus_36048813.1.2.3 Bus2=bus_36048815.1.2.3 phases=3 R1=0.0012 X1=8.5185e-05 R0=0.0013448 X0=8.8148e-05 length=2.7 units=m Normamps=116
New Line.Tx623096-lv_service36048777 Bus1=bus_36048812.1.2.3 Bus2=bus_36048827.1.2.3 phases=3 R1=0.0012 X1=8.4982e-05 R0=0.001345 X0=8.8007e-05 length=27.1 units=m Normamps=116
New Line.Tx623096-lv_service36048671 Bus1=bus_36048810.1.2.3 Bus2=bus_36048811.1.2.3 phases=3 R1=0.0012 X1=7.6667e-05 R0=0.001345 X0=7.6667e-05 length=1.2 units=m Normamps=116
New Line.Tx623096-lv_service36048672 Bus1=bus_500203759.1.2.3 Bus2=bus_36048963_01.1.2.3 phases=3 R1=0.0012 X1=7.6991e-05 R0=0.001345 X0=7.6991e-05 length=11.3 units=m Normamps=116
New Line.Tx623096-lv_service36048675 Bus1=bus_500203758.1.2.3 Bus2=bus_36048960_01.1.2.3 phases=3 R1=0.0012 X1=7.72e-05 R0=0.0013452 X0=7.72e-05 length=2.5 units=m Normamps=116
New Line.Tx623096-lv_service36048678 Bus1=bus_36048918_01.1.2.3 Bus2=bus_36048811.1.2.3 phases=3 R1=0.000868 X1=7.7e-05 R0=0.000973 X0=7.7e-05 length=5 units=m Normamps=58
New Line.Tx623096-lv_service36040560 Bus1=bus_36040577_01.1.2.3 Bus2=bus_36040581.1.2.3 phases=3 R1=0.000868 X1=7.6923e-05 R0=0.00097292 X0=7.6923e-05 length=6.5 units=m Normamps=120
New Line.Tx623096-lv_service36059299 Bus1=bus_36059307.1.2.3 Bus2=bus_36059327_01.1.2.3 phases=3 R1=0.00086824 X1=7.7059e-05 R0=0.00097294 X0=7.7059e-05 length=1.7 units=m Normamps=116
New Line.Tx623096-lv_service36040703 Bus1=bus_36040650.1.2.3 Bus2=bus_36040717_01.1.2.3 phases=3 R1=0.000868 X1=7.6995e-05 R0=0.00091 X0=7.6995e-05 length=41.6 units=m Normamps=163
New Line.Tx623096-lv_service36052287 Bus1=bus_36052591.1.2.3 Bus2=bus_36041264_01.1.2.3 phases=3 R1=0.00086798 X1=7.7016e-05 R0=0.00097298 X0=7.7016e-05 length=12.4 units=m Normamps=120
New Line.Tx623096-lv_service36049230 Bus1=bus_36049486_01.1.2.3 Bus2=bus_36049679.1.2.3 phases=3 R1=0.0012 X1=7.7005e-05 R0=0.001345 X0=7.7005e-05 length=19.7 units=m Normamps=116
New Line.Tx623096-lv_service484819336 Bus1=bus_484819337.1.2.3 Bus2=bus_36059493_01.1.2.3 phases=3 R1=0.0012 X1=7.7e-05 R0=0.001345 X0=7.7e-05 length=1 units=m Normamps=116
New Line.Tx623096-lv_service36059462 Bus1=bus_36059471_01.1.2.3 Bus2=bus_36061711.1.2.3 phases=3 R1=0.0012 X1=7.6998e-05 R0=0.001345 X0=7.6998e-05 length=51.3 units=m Normamps=116
New Line.Tx623096-lv_service36067502 Bus1=bus_36049417.1.2.3 Bus2=bus_36067529.1.2.3 phases=3 R1=0.00086799 X1=7.6982e-05 R0=0.00097302 X0=7.6982e-05 length=16.9 units=m Normamps=154
